public class Names {

    public static List<String> CompanyNames = new List<String> {
'Nexura Labs',
'Urbanora Solutions',
'OmniMinds Corp',
'VeroMatrix',
'LumaLogic',
'Tridenta Systems',
'EchoSphere Inc.',
'Aeronix Group',
'NovaForge Technologies',
'OptiWave',
'SparkWave Industries',
'Vertexio',
'AeroTrust',
'QuantumCrest',
'SynergyHub',
'NebulaWorks',
'Fluxen Global',
'VantagePoint Ltd.',
'ClearSky Innovations',
'Cybreon Systems',
'BlueWave Tech',
'GeoVista Corp',
'CoreVantage',
'NextGenix Solutions',
'AeroStrive',
'MatrixPulse',
'QuantumEdge',
'Zenith Labs',
'DigiSphere',
'PolarShift',
'SkyGrid Technologies',
'IntraVista Inc.',
'Nexium Solutions',
'VerityPoint',
'SpheraX Systems',
'ByteShift',
'OmniSynch',
'ZephyrX',
'PulseWave',
'Lyricon Labs',
'AeroDynamics Inc.',
'AstroRise',
'GigaVault',
'OptiNexus',
'NovaNeon',
'ClearPath Solutions',
'StratoCore',
'QuantumLeap Tech',
'Synaptix',
'ZenithWave',
'NeoVerse Labs',
'Proxima Systems',
'Vertexity',
'Envisionica',
'Synthex Solutions',
'OptiWave Systems',
'ClearEcho',
'Skyward Innovations',
'DataTronix',
'CoreLogix',
'LumaFusion',
'AquaWave Inc.',
'SpheraLine',
'BlueCrest',
'GeoFusion Tech',
'AeroQuest',
'NovaSpark',
'InfinySync',
'VeriTech Solutions',
'HelixWave',
'Tridenta Dynamics',
'ZenithPath',
'Altura Solutions',
'GeoSphere',
'AeroCore Inc.',
'SkyHigh Systems',
'AeroSync',
'Fluxon Labs',
'QuantaWave',
'TerraQuest',
'NeoVista',
'OmniQuest Inc.',
'HorizonWorks',
'AquaCore',
'EcoSonic',
'StratoShift',
'VertexGrid',
'AeroSync Technologies',
'CoreFusion',
'QuantumPulse',
'Celestial Solutions',
'SkyRise Tech',
'Zephyron',
'PulseSync',
'AeroNova',
'Fluxona',
'OptiCore',
'CelestiaWorks',
'FluxWave',
'AeroGrid',
'PulsePath',
'NovaCore',
'QuantumLine',
'AeroFusion',
'SkyVault',
'SpheraCore',
'GeoShift',
'Lumina Tech',
'NextPath',
'AeroLab',
'SkyNova',
'CorePath',
'Verity Labs',
'EnviSys',
'AlturaX',
'TerraWave',
'Proxima Labs',
'QuantumScope',
'HelixNova',
'SkyVault Systems',
'ZenithNet',
'TerraEdge',
'AeroQuest Labs',
'GeoEdge',
'SynapseWave',
'QuantumShift',
'IntraFusion',
'SpheraLabs',
'LuminoX',
'SkyVista',
'CoreWave',
'NexusFlow',
'FluxDyn',
'AeroScope',
'CorePulse',
'StratoNova',
'SkyEdge',
'TerraCore',
'QuantumRise',
'GeoNova',
'NovaFusion',
'SkyLab',
'CoreShift',
'VantageGrid',
'AeroNex',
'SpheraSync',
'OptiLine',
'SkyLine Solutions',
'ProximaWave',
'AeroVista',
'QuantumEdge Labs',
'TerraNova',
'SkySync',
'StratoQuest',
'AeroX',
'GeoSync',
'CoreLab',
'AeroEdge',
'TerraLab',
'SkyCore',
'PulseLab',
'CoreFusion Systems',
'AeroRise',
'QuantumLab',
'SkyPath',
'Zephyr Labs',
'AquaNova',
'CoreRise',
'VertexPath',
'NovaEdge',
'GeoLab',
'SkySync Labs',
'CoreEcho',
'AeroNet',
'SpheraWave',
'QuantumWorks',
'CoreVault',
'SkyLine Labs',
'TerraSync',
'AeroCrest',
'SynchroWave',
'QuantumEdge Solutions',
'CoreNex',
'TerraVista',
'AeroGrid Solutions',
'LuminoWave',
'AeroSpark',
'SkyPath Labs',
'TerraNex',
'Zenith Labs',
'AeroFusion Technologies',
'ProximaWorks',
'FluxaCore',
'AeroPath',
'Synaptix Systems',
'QuantumNex',
'Helix Labs',
'SkyRise Solutions',
'VertexWorks',
'AeroDyn',
'CoreQuest',
'GeoGrid',
'IntraNex',
'SpheraWorks',
'LuminaPath',
'QuantumFlow',
'CoreGrid',
'SkySync Solutions',
'TerraCore Labs',
'AeroEcho',
'AeroLab Technologies',
'SkyNex',
'ZenithPath Solutions',
'TerraWave Labs',
'AeroQuest Systems',
'LuminaNova',
'SkyFusion',
'CoreEcho Labs',
'TerraVault',
'AeroScope Labs',
'GeoNova Solutions',
'AquaSync',
'CorePath Solutions',
'AeroNex Labs',
'SkyWave Systems',
'TerraDyn',
'AeroQuest Dynamics',
'CoreGrid Labs',
'FluxWave Systems',
'TerraLabs',
'CoreRise Solutions',
'QuantumQuest',
'AeroGrid Labs',
'GeoNova Labs',
'SkyCore Solutions',
'CorePulse Systems',
'Lumina Labs',
'AeroLine',
'GeoLine Labs',
'TerraNet',
'AeroQuest Innovations',
'SkyPath Systems',
'CoreFusion Labs',
'TerraScope',
'QuantumPath',
'AeroSync Labs',
'CoreWave Technologies',
'SkyRise Labs',
'TerraLine',
'VertexEdge Solutions',
'HelixWave Labs',
'SkyLab Technologies',
'Proxima Innovations',
'AeroGrid Dynamics',
'SpheraNova',
'CoreSync',
'AeroLine Labs',
'TerraSync Labs',
'QuantumEcho',
'CoreLab Innovations',
'SkyWave Labs',
'AeroDyn Innovations',
'CoreVault Technologies',
'SpheraDyn',
'AeroFusion Systems',
'CoreLine',
'TerraWave Solutions',
'QuantumLine Labs',
'AeroSync Technologies',
'SkyQuest',
'TerraNova Solutions',
'VertexLine',
'AeroWave Innovations',
'CoreSync Labs',
'AeroEdge Innovations',
'QuantumPath Solutions',
'SkyLine Dynamics',
'CoreDyn',
'AeroWave Systems',
'GeoFusion Labs',
'CoreDyn Labs',
'TerraEcho',
'AeroRise Labs',
'SkyQuest Innovations',
'TerraEdge Solutions',
'CoreWave Labs',
'AeroVault',
'SpheraLine Innovations',
'AeroCore Solutions',
'CoreVault Systems'
    };

    public static List<String> FirstNames = new List<String> {
'Oliver',
'Amelia',
'Jack',
'Ava',
'Harry',
'Isla',
'George',
'Mia',
'Noah',
'Lily',
'Charlie',
'Sophia',
'Jacob',
'Ella',
'Alfie',
'Emily',
'Oscar',
'Amber',
'Freddie',
'Grace',
'Leo',
'Chloe',
'Theo',
'Evie',
'Thomas',
'Sienna',
'Arthur',
'Freya',
'James',
'Megan',
'William',
'Florence',
'Lucas',
'Ivy',
'Henry',
'Phoebe',
'Mason',
'Millie',
'Harrison',
'Elsie',
'Finn',
'Daisy',
'Toby',
'Willow',
'Alexander',
'Maisie',
'Dylan',
'Rosie',
'Isaac',
'Luna',
'Joseph',
'Lola',
'Archie',
'Poppy',
'Ryan',
'Aurora',
'Sebastian',
'Layla',
'Louis',
'Olivia',
'Adam',
'Eden',
'Elijah',
'Bella',
'Harvey',
'Georgia',
'Ben',
'Lottie',
'Riley',
'Scarlett',
'Jake',
'Emilia',
'Sam',
'Summer',
'David',
'Sadie',
'Caleb',
'Alice',
'Rory',
'Eleanor',
'Reuben',
'Ruby',
'Callum',
'Paige',
'Aidan',
'Anna',
'Luke',
'Sofia',
'Jasper',
'Maria',
'Zachary',
'Jessica',
'Elliot',
'Zara',
'Aaron',
'Tilly',
'Tom',
'Lara',
'Matthew',
'Beatrice',
'Blake',
'Darcy',
'Christopher',
'Julia',
'Liam',
'Maddison',
'Owen',
'Evelyn',
'Seth',
'Eva',
'Patrick',
'Nina',
'Charlie',
'Brooke',
'Nathan',
'Faith',
'Joel',
'Nancy',
'Asher',
'Sasha',
'Connor',
'Mabel',
'Jude',
'Jasmine',
'Tyler',
'Hannah',
'Ethan',
'Eliza',
'Leon',
'Maya',
'Brandon',
'Bonnie',
'Bobby',
'Ellie',
'Ruben',
'Piper',
'Harley',
'Gabriella',
'Lewis',
'Ayla',
'Eric',
'Sara',
'Max',
'Verity',
'Spencer',
'Delilah',
'Marcus',
'Connie',
'Carter',
'Hope',
'Anthony',
'Lilah',
'Flynn',
'Martha',
'Austin',
'Naomi',
'Silas',
'Alyssa',
'Micah',
'Heidi',
'Roman',
'Madeline',
'George',
'Penelope',
'Alex',
'Annie',
'Bailey',
'Hollie',
'Cole',
'Nell',
'Sean',
'Amara',
'Gabriel',
'Leah',
'Milo',
'Liana',
'Tristan',
'Erin',
'Parker',
'Tessa',
'Simon',
'Tara',
'Ryder',
'Imogen',
'Frederick',
'Josie',
'Grant',
'Matilda',
'Vincent',
'Aubrey',
'Carl',
'Cleo',
'Rafael',
'Edith',
'Bennett',
'Violet',
'Marshall',
'Elise',
'Mitchell',
'Mae',
'Garrett',
'Serena',
'Raymond',
'Brianna',
'Trevor',
'Elena', 
'Alejandro',
'Fatima',
'Ravi',
'Sofia',
'Hiroshi',
'Isabella',
'Mateo',
'Ayesha',
'Dante',
'Sakura',
'Ananya',
'Enzo',
'Yasmin',
'Kai',
'Zara',
'Luciano',
'Amina',
'Eamon',
'Lina',
'Rashid',
'Miguel',
'Yara',
'Mustafa',
'Mireya',
'Santiago',
'Akira',
'Laila',
'Omar',
'Kiana',
'Thiago',
'Jin',
'Imani',
'Hugo',
'Malika',
'Diego',
'Sana',
'Aditya',
'Ines',
'Raul',
'Nadia',
'Luka',
'Inez',
'Jorge',
'Tala',
'Leandro',
'Aisha',
'Elián',
'Talia',
'Mohammed',
'Anika',
'Rafael',
'Safiya',
'Andrés',
'Nia',
'Kenji',
'Rania',
'Felipe',
'Aleena',
'Hassan',
'Jasmina',
'Ivan',
'Mina',
'Ahmet',
'Mara',
'Francesco',
'Amaya',
'Paolo',
'Rumi',
'Kenan',
'Alina',
'Marius',
'Samira',
'Mehdi',
'Sasha',
'Ibrahim',
'Elif',
'Leo',
'Farah',
'Carlos',
'Nour',
'Emanuel',
'Kaida',
'Damian',
'Nabila',
'Sebastian',
'Liliana',
'Lev',
'Fatou',
'Aryan',
'Hala',
'Julio',
'Karima',
'Tomas',
'Selena',
'Milan',
'Amira',
'Tariq',
'Mariama',
'Luan',
'Zainab',
'Hasan',
'Dalila',
'Rami',
'Suri',
'Arjun',
'Priya',
'Juan',
'Zaina',
'Sergio',
'Aaliyah',
'Eitan',
'Khadija',
'Ishaan',
'Leyla',
'Danilo',
'Sarai',
'Fahad',
'Mariyah',
'Alvaro',
'Mahira',
'Pedro',
'Aiysha',
'Joaquin',
'Safiya',
'Keon',
'Ayanna',
'Elian',
'Naila',
'Yusuf',
'Maliha',
'Usman',
'Latifa',
'José',
'Farida',
'Navid',
'Lamis',
'Ansel',
'Maheen',
'Aleksandar',
'Sahar',
'Habib',
'Nyla',
'Stefan',
'Aina',
'Manuel',
'Fatimah',
'Adil',
'Maha',
'Simeon',
'Razia',
'Ryaan',
'Ibtisam',
'Ahmed',
'Malia',
'Daichi',
'Salma',
'Riyad',
'Elham',
'Khalid',
'Thalia',
'Zaid',
'Kalila',
'Marco',
'Farida',
'Mohsin',
'Yazmin',
'Rohit',
'Raya',
'Sadiq',
'Nabila',
'Maximiliano',
'Farah',
'Imad',
'Nadiya',
'Naveen',
'Khadijah',
'Sergei',
'Kiran',
'Pablo',
'Samira',
'Aksel',
'Liora',
'Yara',
'Damaris',
'Luis',
'Maura',
'Mustafa',
'Anaya',
'Tarek',
'Nahla',
'Lucia',
'Hafsa',
'Andrés',
'Aylin',
'Diego',
'Shirin',
'Toufic',
'Mariella',
'Viktor',
'Raisa',
'Zubin',
'Tamika',
'Boris',
'Amal',
'Leila',
'Hassan'
    };
    
    public static List<String> Surnames = new List<String> {
'Smith',
'Garcia',
'Johnson',
'Nguyen',
'Brown',
'Patel',
'Williams',
'Kim',
'Jones',
'Singh',
'Miller',
'Hernandez',
'Davis',
'Lopez',
'Rodriguez',
'Gonzalez',
'Martinez',
'Wilson',
'Perez',
'Taylor',
'Lee',
'Anderson',
'Thomas',
'Jackson',
'White',
'Moore',
'Sanchez',
'Harris',
'Clark',
'Ramirez',
'Lewis',
'Walker',
'Young',
'Allen',
'King',
'Scott',
'Torres',
'Ng',
'Hill',
'Green',
'Adams',
'Baker',
'Mitchell',
'Carter',
'Roberts',
'Gomez',
'Phillips',
'Evans',
'Nelson',
'Morris',
'Murphy',
'Rogers',
'Reed',
'Cook',
'Morgan',
'Bell',
'Cooper',
'Cruz',
'Gray',
'Ortiz',
'James',
'Watson',
'Brooks',
'Kelly',
'Sanders',
'Price',
'Bennett',
'Wood',
'Barnes',
'Ross',
'Russell',
'Diaz',
'Foster',
'Mason',
'Gutierrez',
'Powell',
'Long',
'Perry',
'Butler',
'Jenkins',
'Howard',
'Jordan',
'Wong',
'Ortiz',
'Little',
'Chavez',
'Sullivan',
'Sandoval',
'Guzman',
'Ruiz',
'Fisher',
'Wells',
'Boyd',
'Armstrong',
'Ryan',
'Hamilton',
'Graham',
'Schmidt',
'Davidson',
'Reyes',
'Mendez',
'Oliver',
'Alvarez',
'Collins',
'Murray',
'Ortiz',
'Stone',
'Choi',
'Bishop',
'Ramsey',
'Fleming',
'Watts',
'Johnston',
'Hicks',
'Douglas',
'Fox',
'Love',
'Houston',
'Keller',
'Lawson',
'Spencer',
'Holmes',
'Freeman',
'Khan',
'McCarthy',
'Sharp',
'Ortega',
'Ali',
'McCarthy',
'Armstrong',
'Ball',
'Bates',
'Burke',
'Fowler',
'Byrd',
'Chan',
'Day',
'Goodwin',
'Chang',
'Lyons',
'Hayes',
'Ramirez',
'Stevens',
'Webb',
'Quinn',
'Daniels',
'Schneider',
'Erickson',
'Duncan',
'Ballard',
'Hines',
'Alexander',
'Wade',
'Tate',
'Castillo',
'Molina',
'Castro',
'Lucas',
'Burgess',
'Hoffman',
'Soto',
'Page',
'Holloway',
'Tran',
'Wolfe',
'Silva',
'Yates',
'Roman',
'Barrett',
'Ramos',
'Nash',
'Montoya',
'Morrison',
'Walters',
'Hunt',
'Barker',
'Leon',
'Herrera',
'Pierce',
'Cunningham',
'Blair',
'Whitehead',
'Snow',
'Moss',
'Farrell',
'Fitzgerald',
'Doyle',
'Salinas',
'Shepherd',
'Weber',
'Walsh',
'Newman',
'Cortez',
'Hudson',
'Mann',
'Pope',
'Vega',
'Cabrera',
'Acevedo',
'Escobar',
'Vargas',
'Malik',
'Sharpe',
'Dixon',
'Underwood',
'Davenport',
'Hester',
'Luna',
'Klein',
'Farley',
'Delgado',
'Lamb',
'Vasquez',
'Robbins',
'Hanna',
'O\'Connell',
'O\'Connor',
'O\'Neill',
'O\'Reilly',
'Castro',
'Diaz',
'Santos',
'Benitez',
'Villanueva',
'Macias',
'Fuentes',
'Guerrero',
'Mejia',
'Valencia',
'Acosta',
'Contreras',
'Martins',
'Ferreira',
'Souza',
'Correia',
'Mendes',
'Cunha',
'Pereira',
'Araujo',
'Sousa',
'Lima',
'Ribeiro',
'Silveira',
'Freitas',
'Barbosa',
'Marques'
    };
        
    public static List<String> Initials = new List<String>{
        'A',
        'B',
        'C',
        'D',
        'E',
        'F',
        'G',
        'H',
        'I',
        'J',
        'K',
        'L',
        'M',
        'N',
        'O',
        'P',
        'Q',
        'R',
        'S',
        'T',
        'U',
        'V',
        'W',
        'X',
        'Y',
        'Z'
    };
}